[TITLE]

[JUNCTIONS]
1 0.0 3198.27220816 
2 0.0 2872.52226377 
3 0.0 5330.453665 
4 0.0 2191.40873032 
5 0.0 1962.39664889 
6 0.0 4027.45388947 
7 0.0 3701.70394708 
8 0.0 5063.93099409 
9 0.0 5182.38551715 
10 0.0 5774.65815433 
13 0.0 7847.6123596 
14 0.0 5745.04450566 
15 0.0 9387.52120315 
16 0.0 2961.36316204 
18 0.0 9861.33929339 
19 0.0 5360.06731169 
20 0.0 3790.54484534 
5 0.0 0.0 
11 0.0 0.0 
12 0.0 0.0 
17 0.0 0.0 
29 0.0 0.0 
30 0.0 0.0 
32 0.0 0.0 
33 0.0 0.0 
34 0.0 0.0 
35 0.0 0.0 
36 0.0 0.0 
37 0.0 0.0 
24 0.0 0.0 
25 0.0 0.0 
26 0.0 0.0 
27 0.0 0.0 
28 0.0 0.0 

[RESERVOIRS]
21 0.0 
22 0.0 
23 0.0 

[TANKS]

[PIPES]
1 22 31 87754.0 120.0 100.0 0.0 OPEN
2 31 4 57288.0 120.0 100.0 0.0 OPEN
3 4 9 142560.0 120.0 100.0 0.0 OPEN
4 9 3 163680.0 60.0 100.0 0.0 OPEN
5 9 14 168854.0 120.0 100.0 0.0 OPEN
6 14 16 142560.0 60.0 100.0 0.0 OPEN
7 16 15 63360.0 60.0 100.0 0.0 OPEN
8 15 17 307243.0 60.0 100.0 0.0 OPEN
9 17 18 360413.0 60.0 100.0 0.0 OPEN
10 18 19 170016.0 60.0 100.0 0.0 OPEN
11 19 16 84480.0 60.0 100.0 0.0 OPEN
14 14 5 253968.0 120.0 100.0 0.0 OPEN
15 5 20 427205.0 120.0 100.0 0.0 OPEN
16 20 35 82526.0 120.0 100.0 0.0 OPEN
17 35 36 26030.0 120.0 100.0 0.0 OPEN
18 36 28 236069.0 120.0 100.0 0.0 OPEN
19 21 12 180259.0 120.0 100.0 0.0 OPEN
20 12 17 48629.0 120.0 100.0 0.0 OPEN
21 17 37 123605.0 120.0 100.0 0.0 OPEN
22 37 10 54067.0 120.0 100.0 0.0 OPEN
23 17 26 49949.0 120.0 100.0 0.0 OPEN
24 21 33 129835.0 120.0 100.0 0.0 OPEN
25 33 27 126403.0 120.0 100.0 0.0 OPEN
26 21 34 130627.0 120.0 100.0 0.0 OPEN
27 34 32 57024.0 120.0 100.0 0.0 OPEN
28 33 32 126773.0 120.0 100.0 0.0 OPEN
29 32 13 177566.0 120.0 100.0 0.0 OPEN
30 13 6 93562.0 60.0 100.0 0.0 OPEN
31 6 29 89232.0 120.0 100.0 0.0 OPEN
32 29 30 59717.0 120.0 100.0 0.0 OPEN
33 30 24 47942.0 120.0 100.0 0.0 OPEN
34 23 11 105494.0 120.0 100.0 0.0 OPEN
35 11 6 39442.0 120.0 100.0 0.0 OPEN
36 10 5 121440.0 120.0 100.0 0.0 OPEN
37 5 25 39758.0 120.0 100.0 0.0 OPEN
38 5 7 187440.0 60.0 100.0 0.0 OPEN
39 7 8 84480.0 60.0 100.0 0.0 OPEN
40 8 2 34531.0 60.0 100.0 0.0 OPEN
41 2 1 15840.0 60.0 100.0 0.0 OPEN
42 1 5 116160.0 60.0 100.0 0.0 OPEN

[PUMPS]
4 104 204 POWER 225.0 SPEED 1.0
20 120 220 POWER 225.0 SPEED 1.0

[VALVES]

[CURVES]

[ENERGY]
Global Efficiency 75
Global Price 0
Demand Charge 0

[REACTIONS]
Order Bulk 1
Order Tank 1
Order Wall 1
Global Bulk 0
Global Wall 0
Limiting Potential 0
Roughness Correlation 0

[TIMES]
Duration 0:00:10
Hydraulic Timestep 0:00:10
Quality Timestep 0:05
Pattern Timestep 1:00
Pattern Start 0:00
Report Timestep 1:00
Report Start 0:00
Start ClockTime 12 am
Statistic NONE

[REPORT]
Status No
Summary No
Page 0

[OPTIONS]
Units GPM
Headloss H-W
Specific Gravity 1
Viscosity 1
Trials 40
Accuracy 0.001
CHECKFREQ 2
MAXCHECK 10
DAMPLIMIT 0
Unbalanced Continue 10
Pattern 1
Demand Multiplier 1.0
Emitter Exponent 0.5
Quality None mg/L
Diffusivity 1
Tolerance 0.01

[END]
