[TITLE]

[JUNCTIONS]
1 250.0 31403.925 
2 250.0 28297.525 
3 200.0 50831.0 
104 100.0 0.0 
204 100.0 0.0 
5 300.0 20048.6 
6 400.0 38405.4 
7 250.0 37220.4765719 
8 250.0 48287.8 
9 200.0 49418.6 
10 350.0 55066.0 
11 450.0 0.0 
12 450.0 0.0 
13 350.0 78782.87005 
14 300.0 54784.4 
15 400.0 89644.1522753 
16 200.0 28239.2 
17 450.0 0.0 
18 200.0 96269.6857791 
19 300.0 51112.6 
120 300.0 0.0 
220 100.0 0.0 
24 250.0 0.0 
25 250.0 0.0 
26 400.0 0.0 
27 400.0 0.0 
28 100.0 162159.8 
29 350.0 0.0 
30 300.0 0.0 
31 100.0 0.0 
32 400.0 0.0 
33 450.0 3685.01675 
34 450.0 0.0 
35 200.0 0.0 
36 400.0 0.0 
37 400.0 0.0 
38 100.0 0.0 
2001 250.0 0.0 
2002 250.0 0.0 
2003 200.0 0.0 
2007 250.0 0.0 
2008 250.0 0.0 
2015 400.0 0.0 
2016 200.0 0.0 
2018 200.0 0.0 
2019 300.0 0.0 

[RESERVOIRS]
21 1254.0 
22 880.0 
23 1199.0 
3001 450.0 
3002 450.0 
3003 400.0 
3007 450.0 
3008 450.0 
3015 600.0 
3016 400.0 
3018 400.0 
3019 500.0 

[TANKS]
1001 250.0 32.07 0.0 32.07 100.0 0.0
1002 250.0 28.89 0.0 28.89 100.0 0.0
1003 200.0 51.91 0.0 51.91 100.0 0.0
1005 300.0 20.47 0.0 20.47 100.0 0.0
1006 400.0 39.22 0.0 39.22 100.0 0.0
1007 250.0 38.09 0.0 38.09 100.0 0.0
1008 250.0 49.31 0.0 49.31 100.0 0.0
1009 200.0 50.47 0.0 50.47 100.0 0.0
1010 350.0 56.24 0.0 56.24 100.0 0.0
1013 350.0 80.44 0.0 80.44 100.0 0.0
1014 300.0 55.95 0.0 55.95 100.0 0.0
1015 400.0 91.48 0.0 91.48 100.0 0.0
1016 200.0 29.72 0.0 29.72 100.0 0.0
1018 200.0 97.33 0.0 97.33 100.0 0.0
1019 300.0 52.2 0.0 52.2 100.0 0.0
1028 100.0 165.61 0.0 165.61 100.0 0.0

[PIPES]
1 22 31 87754.0 108.0 0.0145 0.0 OPEN
2 31 104 57288.0 108.0 0.0145 0.0 OPEN
4 204 9 142560.0 108.0 0.0145 0.0 OPEN
6 9 14 168854.0 108.0 0.0145 0.0 OPEN
13 14 38 108346.0 108.0 0.0145 0.0 OPEN
14 38 120 76085.0 108.0 0.0145 0.0 OPEN
15 220 35 82526.0 108.0 0.0145 0.0 OPEN
16 35 36 26030.0 108.0 0.0145 0.0 OPEN
17 36 28 236069.0 108.0 0.0145 0.0 OPEN
23 5 25 39758.0 108.0 0.0145 0.0 OPEN
24 10 5 121440.0 108.0 0.0145 0.0 OPEN
25 37 10 54067.0 108.0 0.0145 0.0 OPEN
26 17 37 123605.0 108.0 0.0145 0.0 OPEN
27 12 17 48629.0 108.0 0.0145 0.0 OPEN
28 21 12 180259.0 108.0 0.0145 0.0 OPEN
29 21 34 130627.0 108.0 0.0145 0.0 OPEN
30 34 32 57024.0 108.0 0.0145 0.0 OPEN
31 21 33 129835.0 108.0 0.0145 0.0 OPEN
32 33 27 126403.0 108.0 0.0145 0.0 OPEN
33 33 32 126773.0 108.0 0.0145 0.0 OPEN
34 32 13 177566.0 108.0 0.0145 0.0 OPEN
35 17 26 49949.0 108.0 0.0145 0.0 OPEN
36 23 11 105494.0 108.0 0.0145 0.0 OPEN
37 11 6 39442.0 108.0 0.0145 0.0 OPEN
41 6 29 89232.0 108.0 0.0145 0.0 OPEN
42 29 30 59717.0 108.0 0.0145 0.0 OPEN
43 30 24 47942.0 108.0 0.0145 0.0 OPEN
5 9 3 163680.0 144.0 0.0145 0.0 OPEN
8 16 15 63360.0 144.0 0.0145 0.0 OPEN
9 14 16 142560.0 144.0 0.0145 0.0 OPEN
10 15 18 123658.0 144.0 0.0145 0.0 OPEN
11 16 19 84480.0 144.0 0.0145 0.0 OPEN
12 19 18 168960.0 144.0 0.0145 0.0 OPEN
18 5 1 116160.0 144.0 0.0145 0.0 OPEN
19 1 2 15840.0 144.0 0.0145 0.0 OPEN
20 2 8 34531.0 144.0 0.0145 0.0 OPEN
21 8 7 84480.0 144.0 0.0145 0.0 OPEN
22 7 5 187440.0 144.0 0.0145 0.0 OPEN
38 13 6 93562.0 144.0 0.0145 0.0 OPEN
39 6 14 212520.0 144.0 0.0145 0.0 OPEN
40 13 14 266904.0 144.0 0.0145 0.0 CLOSED
1001 1001 1 1.0 144.0 0.0145 0.0 OPEN
1002 1002 2 1.0 144.0 0.0145 0.0 OPEN
1003 1003 3 1.0 144.0 0.0145 0.0 OPEN
1005 1005 5 1.0 144.0 0.0145 0.0 OPEN
1006 1006 6 1.0 144.0 0.0145 0.0 OPEN
1007 1007 7 1.0 144.0 0.0145 0.0 OPEN
1008 1008 8 1.0 144.0 0.0145 0.0 OPEN
1009 1009 9 1.0 144.0 0.0145 0.0 OPEN
1010 1010 10 1.0 144.0 0.0145 0.0 OPEN
1013 1013 13 1.0 144.0 0.0145 0.0 OPEN
1014 1014 14 1.0 144.0 0.0145 0.0 OPEN
1015 1015 15 1.0 144.0 0.0145 0.0 OPEN
1016 1016 16 1.0 144.0 0.0145 0.0 OPEN
1018 1018 18 1.0 144.0 0.0145 0.0 OPEN
1019 1019 19 1.0 144.0 0.0145 0.0 OPEN
1028 1028 28 1.0 144.0 0.0145 0.0 OPEN
3001 3001 2001 1.0 144.0 0.0145 0.0 CV
3002 3002 2002 1.0 144.0 0.0145 0.0 CV
3003 3003 2003 1.0 144.0 0.0145 0.0 CV
3007 3007 2007 1.0 144.0 0.0145 0.0 CV
3008 3008 2008 1.0 144.0 0.0145 0.0 CV
3015 3015 2015 1.0 144.0 0.0145 0.0 CV
3016 3016 2016 1.0 144.0 0.0145 0.0 CV
3018 3018 2018 1.0 144.0 0.0145 0.0 CV
3019 3019 2019 1.0 144.0 0.0145 0.0 CV

[PUMPS]
3 104 204 POWER 32200.0 SPEED 1.0
7 120 220 POWER 42100.0 SPEED 1.0

[VALVES]
2001 2001 1 144.0 FCV 12399.0 0.0
2002 2002 2 144.0 FCV 12399.0 0.0
2003 2003 3 144.0 FCV 12399.0 0.0
2007 2007 7 144.0 FCV 12399.0 0.0
2008 2008 8 144.0 FCV 12399.0 0.0
2015 2015 15 144.0 FCV 12399.0 0.0
2016 2016 16 144.0 FCV 12399.0 0.0
2018 2018 18 144.0 FCV 12399.0 0.0
2019 2019 19 144.0 FCV 12399.0 0.0

[CURVES]

[ENERGY]
Global Efficiency 75
Global Price 0
Demand Charge 0

[REACTIONS]
Order Bulk 1
Order Tank 1
Order Wall 1
Global Bulk 0
Global Wall 0
Limiting Potential 0
Roughness Correlation 0

[TIMES]
Duration 1:00
Hydraulic Timestep 1:00
Quality Timestep 0:06
Pattern Timestep 1:00
Pattern Start 0:00
Report Timestep 1:00
Report Start 0:00
Start ClockTime 12 am
Statistic NONE

[REPORT]
Status No
Summary No
Page 0

[OPTIONS]
Units GPM
Headloss C-M
Specific Gravity 1
Viscosity 1
Trials 40
Accuracy 0.001
CHECKFREQ 2
MAXCHECK 10
DAMPLIMIT 0
Unbalanced Continue 10
Pattern 1
Demand Multiplier 1.0
Emitter Exponent 0.5
Quality None mg/L
Diffusivity 1
Tolerance 0.01

[END]
