[TITLE]

[JUNCTIONS]
1 1134.0 56.6695 
2 1120.0 32621.92704328572 
3 1450.0 60325.34950928572 
104 1385.0 0.0 
204 1385.0 0.0 
5 1208.0 0.0 
6 1087.0 45578.862860142865 
7 1081.0 41892.24119785715 
8 1125.0 57307.12384242858 
9 1521.0 58649.137677000006 
10 1191.0 65351.37408428572 
11 1114.0 0.0 
12 1285.0 0.0 
13 1107.0 88810.5069707143 
14 1386.0 65017.17608657144 
15 1490.0 0.0 
16 1470.0 0.0 
17 1300.0 0.0 
18 1455.0 4893.321100000001 
19 1460.0 0.0 
120 1293.0 0.0 
220 1293.0 0.0 
24 1060.0 0.0 
25 1204.0 0.0 
26 1245.0 0.0 
27 1239.0 0.0 
28 1340.0 170318.265507 
29 1089.0 0.0 
30 1104.0 0.0 
31 1451.0 0.0 
32 1206.0 0.0 
33 1281.0 3231.1556289385608 
34 1251.0 0.0 
35 1310.0 0.0 
36 1320.0 0.0 
37 1140.0 0.0 
38 1365.0 0.0 
2001 1134.0 0.0 
2002 1120.0 0.0 
2003 1450.0 0.0 
2007 1081.0 0.0 
2008 1125.0 0.0 
2015 1490.0 0.0 
2016 1470.0 0.0 
2018 1455.0 0.0 
2019 1460.0 0.0 

[RESERVOIRS]
21 3075.31853268 
22 3382.163887547143 
23 2376.659623221429 
1001 1134.0 
1002 1120.0 
1003 1450.0 
1005 1208.0 
1006 1087.0 
1007 1081.0 
1008 1125.0 
1009 1521.0 
1010 1191.0 
1013 1107.0 
1014 1386.0 
1015 1600.0 
1016 1595.0 
1018 1550.0 
1019 1520.0 
1028 1600.0 
1033 1281.0 
3001 1336.0 
3002 1319.0 
3003 1650.0 
3007 1279.0 
3008 1326.0 
3015 1692.0 
3016 1672.0 
3018 1653.0 
3019 1659.0 

[TANKS]

[PIPES]
1 22 31 87754.0 108.0 0.0145 0.0 OPEN
2 31 104 57288.0 108.0 0.0145 0.0 OPEN
4 204 9 142560.0 108.0 0.0145 0.0 OPEN
6 9 14 168854.0 108.0 0.0145 0.0 OPEN
13 14 38 108346.0 108.0 0.0145 0.0 OPEN
14 38 120 76085.0 108.0 0.0145 0.0 OPEN
15 220 35 82526.0 108.0 0.0145 0.0 OPEN
16 35 36 26030.0 108.0 0.0145 0.0 OPEN
17 36 28 236069.0 108.0 0.0145 0.0 OPEN
23 5 25 39758.0 108.0 0.0145 0.0 OPEN
24 10 5 121440.0 108.0 0.0145 0.0 OPEN
25 37 10 54067.0 108.0 0.0145 0.0 OPEN
26 17 37 123605.0 108.0 0.0145 0.0 OPEN
27 12 17 48629.0 108.0 0.0145 0.0 OPEN
28 21 12 180259.0 108.0 0.0145 0.0 OPEN
29 21 34 130627.0 108.0 0.0145 0.0 OPEN
30 34 32 57024.0 108.0 0.0145 0.0 OPEN
31 21 33 129835.0 108.0 0.0145 0.0 OPEN
32 33 27 126403.0 108.0 0.0145 0.0 OPEN
33 33 32 126773.0 108.0 0.0145 0.0 OPEN
34 32 13 177566.0 108.0 0.0145 0.0 OPEN
35 17 26 49949.0 108.0 0.0145 0.0 OPEN
36 23 11 105494.0 108.0 0.0145 0.0 OPEN
37 11 6 39442.0 108.0 0.0145 0.0 OPEN
41 6 29 89232.0 108.0 0.0145 0.0 OPEN
42 29 30 59717.0 108.0 0.0145 0.0 OPEN
43 30 24 47942.0 108.0 0.0145 0.0 OPEN
5 9 3 163680.0 144.0 0.013000000000000001 0.0 OPEN
8 16 15 63360.0 144.0 0.013000000000000001 0.0 OPEN
9 14 16 142560.0 144.0 0.013000000000000001 0.0 CLOSED
10 15 18 123658.0 144.0 0.013000000000000001 0.0 OPEN
11 16 19 84480.0 144.0 0.013000000000000001 0.0 OPEN
12 19 18 168960.0 144.0 0.013000000000000001 0.0 OPEN
18 5 1 116160.0 144.0 0.013000000000000001 0.0 OPEN
19 1 2 15840.0 144.0 0.013000000000000001 0.0 OPEN
20 2 8 34531.0 144.0 0.013000000000000001 0.0 OPEN
21 8 7 84480.0 144.0 0.013000000000000001 0.0 OPEN
22 7 5 187440.0 144.0 0.013000000000000001 0.0 OPEN
38 13 6 93562.0 144.0 0.013000000000000001 0.0 OPEN
39 6 14 212520.0 144.0 0.013000000000000001 0.0 OPEN
40 13 14 266904.0 144.0 0.013000000000000001 0.0 OPEN
1001 1001 1 1.0 144.0 0.013000000000000001 0.0 OPEN
1002 1002 2 1.0 144.0 0.013000000000000001 0.0 CLOSED
1003 1003 3 1.0 144.0 0.013000000000000001 0.0 CLOSED
1005 1005 5 1.0 144.0 0.013000000000000001 0.0 OPEN
1006 1006 6 1.0 144.0 0.013000000000000001 0.0 CLOSED
1007 1007 7 1.0 144.0 0.013000000000000001 0.0 CLOSED
1008 1008 8 1.0 144.0 0.013000000000000001 0.0 CLOSED
1009 1009 9 1.0 144.0 0.013000000000000001 0.0 CLOSED
1010 1010 10 1.0 144.0 0.013000000000000001 0.0 CLOSED
1013 1013 13 1.0 144.0 0.013000000000000001 0.0 CLOSED
1014 1014 14 1.0 144.0 0.013000000000000001 0.0 CLOSED
1015 1015 15 1.0 144.0 0.013000000000000001 0.0 OPEN
1016 1016 16 1.0 144.0 0.013000000000000001 0.0 OPEN
1018 1018 18 1.0 144.0 0.013000000000000001 0.0 OPEN
1019 1019 19 1.0 144.0 0.013000000000000001 0.0 OPEN
1028 1028 28 1.0 144.0 0.013000000000000001 0.0 CLOSED
1033 1033 33 1.0 144.0 0.013000000000000001 0.0 CLOSED
3001 3001 2001 1.0 144.0 0.013000000000000001 0.0 CV
3002 3002 2002 1.0 144.0 0.013000000000000001 0.0 CV
3003 3003 2003 1.0 144.0 0.013000000000000001 0.0 CV
3007 3007 2007 1.0 144.0 0.013000000000000001 0.0 CV
3008 3008 2008 1.0 144.0 0.013000000000000001 0.0 CV
3015 3015 2015 1.0 144.0 0.013000000000000001 0.0 CV
3016 3016 2016 1.0 144.0 0.013000000000000001 0.0 CV
3018 3018 2018 1.0 144.0 0.013000000000000001 0.0 CV
3019 3019 2019 1.0 144.0 0.013000000000000001 0.0 CV

[PUMPS]
3 104 204 HEAD 1 SPEED 1.0
7 120 220 HEAD 2 SPEED 1.0

[VALVES]
2001 2001 1 144.0 PBV 0.0 0.0
2002 2002 2 144.0 PBV 0.0 0.0
2003 2003 3 144.0 PBV 0.0 0.0
2007 2007 7 144.0 PBV 0.0 0.0
2008 2008 8 144.0 PBV 0.0 0.0
2015 2015 15 144.0 PBV 0.0 0.0
2016 2016 16 144.0 PBV 0.0 0.0
2018 2018 18 144.0 PBV 0.0 0.0
2019 2019 19 144.0 PBV 0.0 0.0

[CURVES]
1 852782.7 192.0
2 1256732.4 86.0

[ENERGY]
Global Efficiency 75
Global Price 0
Demand Charge 0

[REACTIONS]
Order Bulk 1
Order Tank 1
Order Wall 1
Global Bulk 0
Global Wall 0
Limiting Potential 0
Roughness Correlation 0

[TIMES]
Duration 0:00:00
Hydraulic Timestep 0:00:01
Quality Timestep 0:06
Pattern Timestep 1:00
Pattern Start 0:00
Report Timestep 1:00
Report Start 0:00
Start ClockTime 12 am
Statistic NONE

[REPORT]
Status No
Summary No
Page 0

[OPTIONS]
Units GPM
Headloss C-M
Specific Gravity 1
Viscosity 1
Trials 40
Accuracy 0.001
CHECKFREQ 2
MAXCHECK 10
DAMPLIMIT 0
Unbalanced Continue 10
Pattern 1
Demand Multiplier 1.0
Emitter Exponent 0.5
Quality None mg/L
Diffusivity 1
Tolerance 0.01

[END]
