[TITLE]

[JUNCTIONS]
1 250.0 25785.18 
2 250.0 23158.86 
3 200.0 42975.3 
104 100.0 0.0 
204 100.0 0.0 
5 300.0 16950.18 
6 400.0 32470.02 
7 250.0 29843.7 
8 250.0 40825.14 
9 200.0 41781.18 
10 350.0 46555.8 
11 450.0 0.0 
12 450.0 0.0 
13 350.0 63267.9 
14 300.0 46317.72 
15 400.0 75683.4 
16 200.0 23874.96 
17 450.0 0.0 
18 200.0 79501.98 
19 300.0 43213.38 
120 300.0 0.0 
220 100.0 0.0 
24 250.0 0.0 
25 250.0 0.0 
26 400.0 0.0 
27 400.0 0.0 
28 100.0 186000.0 
29 350.0 0.0 
30 300.0 0.0 
31 100.0 0.0 
32 400.0 0.0 
33 450.0 0.0 
34 450.0 0.0 
35 200.0 0.0 
36 400.0 0.0 
37 400.0 0.0 
38 100.0 0.0 

[RESERVOIRS]
21 1100.0 
22 500.0 
23 850.0 

[TANKS]

[PIPES]
1 22 31 87754.0 108.0 100.0 0.0 OPEN
2 31 104 57288.0 108.0 100.0 0.0 OPEN
4 204 9 142560.0 108.0 100.0 0.0 OPEN
6 9 14 168854.0 108.0 100.0 0.0 OPEN
13 14 38 108346.0 108.0 100.0 0.0 OPEN
14 38 120 76085.0 108.0 100.0 0.0 OPEN
15 220 35 82526.0 108.0 100.0 0.0 OPEN
16 35 36 26030.0 108.0 100.0 0.0 OPEN
17 36 28 236069.0 108.0 100.0 0.0 OPEN
23 5 25 39758.0 108.0 100.0 0.0 OPEN
24 10 5 121440.0 108.0 100.0 0.0 OPEN
25 37 10 54067.0 108.0 100.0 0.0 OPEN
26 17 37 123605.0 108.0 100.0 0.0 OPEN
27 12 17 48629.0 108.0 100.0 0.0 OPEN
28 21 12 180259.0 108.0 100.0 0.0 OPEN
29 21 34 130627.0 108.0 100.0 0.0 OPEN
30 34 32 57024.0 108.0 100.0 0.0 OPEN
31 21 33 129835.0 108.0 100.0 0.0 OPEN
32 33 27 126403.0 108.0 100.0 0.0 OPEN
33 33 32 126773.0 108.0 100.0 0.0 OPEN
34 32 13 177566.0 108.0 100.0 0.0 OPEN
35 17 26 49949.0 108.0 100.0 0.0 OPEN
36 23 11 105494.0 108.0 100.0 0.0 OPEN
37 11 6 39442.0 108.0 100.0 0.0 OPEN
41 6 29 89232.0 108.0 100.0 0.0 OPEN
42 29 30 59717.0 108.0 100.0 0.0 OPEN
43 30 24 47942.0 108.0 100.0 0.0 OPEN
5 9 3 163680.0 144.0 100.0 0.0 OPEN
8 16 15 63360.0 144.0 100.0 0.0 OPEN
9 14 16 142560.0 144.0 100.0 0.0 OPEN
10 15 18 123658.0 144.0 100.0 0.0 OPEN
11 16 19 84480.0 144.0 100.0 0.0 OPEN
12 19 18 168960.0 144.0 100.0 0.0 OPEN
18 5 1 116160.0 144.0 100.0 0.0 OPEN
19 1 2 15840.0 144.0 100.0 0.0 OPEN
20 2 8 34531.0 144.0 100.0 0.0 OPEN
21 8 7 84480.0 144.0 100.0 0.0 OPEN
22 7 5 187440.0 144.0 100.0 0.0 OPEN
38 13 6 93562.0 144.0 100.0 0.0 OPEN
39 6 14 212520.0 144.0 100.0 0.0 OPEN
40 13 14 266904.0 144.0 100.0 0.0 OPEN

[PUMPS]
3 104 204 POWER 32200.0 SPEED 1.0
7 120 220 POWER 42100.0 SPEED 1.0

[VALVES]

[CURVES]

[ENERGY]
Global Efficiency 75
Global Price 0
Demand Charge 0

[REACTIONS]
Order Bulk 1
Order Tank 1
Order Wall 1
Global Bulk 0
Global Wall 0
Limiting Potential 0
Roughness Correlation 0

[TIMES]
Duration 0:01:00
Hydraulic Timestep 0:01:00
Quality Timestep 0:05
Pattern Timestep 1:00
Pattern Start 0:00
Report Timestep 1:00
Report Start 0:00
Start ClockTime 12 am
Statistic NONE

[REPORT]
Status Yes
Summary Yes
Page 0

[OPTIONS]
Units GPM
Headloss H-W
Specific Gravity 1
Viscosity 1
Trials 40
Accuracy 0.001
CHECKFREQ 2
MAXCHECK 10
DAMPLIMIT 0
Unbalanced Continue 10
Pattern 1
Demand Multiplier 1.0
Emitter Exponent 0.5
Quality None mg/L
Diffusivity 1
Tolerance 0.01

[END]
